2024_89_CemigReconfigurationCases/1_AlimsCemig/MDH08/MDH08CargaMT_Dez.dss
new load.3009000499M1 bus1=BMT101711703.1.2.3.0,Phases=3,kv=13.8,kW=241.35334,pf=0.92,Vminpu=0.93,Vmaxpu=1.5,model=1,daily=A4-6,status=variable
new load.3009000500M1 bus1=BMT101711717.1.2.3.0,Phases=3,kv=13.8,kW=58.58006,pf=0.92,Vminpu=0.93,Vmaxpu=1.5,model=1,daily=A4-3,status=variable
new load.3009011375M1 bus1=BMT130008503.1.2.3.0,Phases=3,kv=13.8,kW=22.8133,pf=0.92,Vminpu=0.93,Vmaxpu=1.5,model=1,daily=A4-2,status=variable
new load.3009012514M1 bus1=BMT150522428.1.2.3.0,Phases=3,kv=13.8,kW=35.04784,pf=0.92,Vminpu=0.93,Vmaxpu=1.5,model=1,daily=A4-2,status=variable
new load.3009015678M1 bus1=BMT101710100.1.2.3.0,Phases=3,kv=13.8,kW=5.88978,pf=0.92,Vminpu=0.93,Vmaxpu=1.5,model=1,daily=A4-1,status=variable
new load.3009020035M1 bus1=BMT101711423.1.2.3.0,Phases=3,kv=13.8,kW=2.4868,pf=0.92,Vminpu=0.93,Vmaxpu=1.5,model=1,daily=A4-1,status=variable
new load.3009020431M1 bus1=BMT101708819.1.2.3.0,Phases=3,kv=13.8,kW=18.39782,pf=0.92,Vminpu=0.93,Vmaxpu=1.5,model=1,daily=A4-2,status=variable
new load.3009021346M1 bus1=BMT101710366.1.2.3.0,Phases=3,kv=13.8,kW=105.16822,pf=0.92,Vminpu=0.93,Vmaxpu=1.5,model=1,daily=A4-4,status=variable
new load.3009021519M1 bus1=BMT129570359.1.2.3.0,Phases=3,kv=13.8,kW=94.67698,pf=0.92,Vminpu=0.93,Vmaxpu=1.5,model=1,daily=A4-2,status=variable
new load.3010238743M1 bus1=BMT101708833.1.2.3.0,Phases=3,kv=13.8,kW=9.93482,pf=0.92,Vminpu=0.93,Vmaxpu=1.5,model=1,daily=A4-2,status=variable
new load.3011494559M1 bus1=BMT121370888.1.2.3.0,Phases=3,kv=13.8,kW=1.7015,pf=0.92,Vminpu=0.93,Vmaxpu=1.5,model=1,daily=A4-1,status=variable
new load.3012174536M1 bus1=BMT150341338.1.2.3.0,Phases=3,kv=13.8,kW=289.3332,pf=0.92,Vminpu=0.93,Vmaxpu=1.5,model=1,daily=A4-4,status=variable
new load.3012175717M1 bus1=BMT101710233.1.2.3.0,Phases=3,kv=13.8,kW=360.56688,pf=0.92,Vminpu=0.93,Vmaxpu=1.5,model=1,daily=A4-5,status=variable
new load.3012963883M1 bus1=BMT163260599.1.2.3.0,Phases=3,kv=13.8,kW=31.30142,pf=0.92,Vminpu=0.93,Vmaxpu=1.5,model=1,daily=A4-3,status=variable
new load.3013093944M1 bus1=BMT162785150.1.2.3.0,Phases=3,kv=13.8,kW=66.8165,pf=0.92,Vminpu=0.93,Vmaxpu=1.5,model=1,daily=A4-3,status=variable
new load.3013125556M1 bus1=BMT159040809.1.2.3.0,Phases=3,kv=13.8,kW=21.53042,pf=0.92,Vminpu=0.93,Vmaxpu=1.5,model=1,daily=A4-1,status=variable
new load.3013503721M1 bus1=BMT165798944.1.2.3.0,Phases=3,kv=13.8,kW=5.49714,pf=0.92,Vminpu=0.93,Vmaxpu=1.5,model=1,daily=A4-1,status=variable
